17   
torsion grid (-75,)
C        2.0985395030   -0.7335213305   -0.0361877623
C        0.7799401163   -0.5914734203   -0.4004319841
C        2.9640269242   -1.5626546316   -0.9072669087
C        0.4810104228   -0.7983475550   -1.8422575110
C       -1.7530959006    0.3170238412   -1.9792472322
C       -2.7790605986    0.7405185981   -3.0148415642
N        2.3312234535   -2.0327093990   -1.9511843357
N        1.5606270796   -1.0453172570   -2.5449501143
N       -0.6171523730   -0.2741495855   -2.5156813595
O       -1.9345641987    0.4486489090   -0.7759224519
H        2.4386402459   -0.4113686409    0.9435280935
H        0.0242038710   -0.2044208102    0.2703096859
H        3.7954538035   -2.1380282792   -0.5028704133
H       -3.4829211935   -0.0831822623   -3.1759200911
H       -2.3332987532    1.0061535681   -3.9775430124
H       -3.3378711089    1.5907639447   -2.6222680722
H       -0.5418881669   -0.3682941603   -3.5237309249
17   
torsion grid (-60,)
C        2.0733988383   -0.7883415697   -0.0081135418
C        0.7686418915   -0.5861987713   -0.4053252676
C        2.9263451222   -1.5560975158   -0.8865345662
C        0.5109763516   -0.7599174608   -1.8217824032
C       -1.7308687614    0.3467261895   -1.9732420655
C       -2.7721308926    0.7228676111   -3.0121926192
N        2.4006377081   -1.9712302901   -2.0236695635
N        1.5467749603   -1.0672454085   -2.5872612492
N       -0.6086579236   -0.2753363412   -2.4975142842
O       -1.8933497081    0.5423909435   -0.7749748714
H        2.4032555377   -0.5077374659    0.9877754558
H        0.0014282134   -0.2054334342    0.2553636098
H        3.7938867985   -2.0965566556   -0.5135231947
H       -3.4852152092   -0.1020317879   -3.1161162591
H       -2.3418749762    0.9323465916   -3.9955877565
H       -3.3171149613    1.5978882513   -2.6562457174
H       -0.5462941353   -0.4095225124   -3.5016248101
17   
torsion grid (-45,)
C        2.0536939676   -0.8398864417    0.0096469050
C        0.7684498364   -0.5637331489   -0.4156447077
C        2.9101521686   -1.5587075618   -0.8742023793
C        0.5267924452   -0.7325811750   -1.8150601525
C       -1.7206586851    0.3650012857   -1.9710390681
C       -2.7747421540    0.7132200785   -3.0070477954
N        2.4622179344   -1.9144513869   -2.0700955510
N        1.5189479748   -1.1186320966   -2.6133794129
N       -0.6034918547   -0.2661971410   -2.4904405012
O       -1.8704544017    0.5941555352   -0.7763765489
H        2.3707818822   -0.6022237518    1.0209878767
H        0.0004675535   -0.1671633212    0.2346908890
H        3.8015692344   -2.0653794770   -0.5124119458
H       -3.4888745599   -0.1140829981   -3.0797666788
H       -2.3566007353    0.8957577961   -4.0009826015
H       -3.3155300489    1.5977261896   -2.6684904021
H       -0.5522073659   -0.4269919400   -3.4912886278
17   
torsion grid (-30,)
C        2.0345817609   -0.8806618417    0.0332370646
C        0.7719620524   -0.5362924776   -0.4145314942
C        2.8942582548   -1.5603358493   -0.8564539121
C        0.5457032156   -0.7004711845   -1.8037156881
C       -1.7091003675    0.3825905107   -1.9716544994
C       -2.7747543128    0.6979626409   -3.0064678568
N        2.5197449472   -1.8463300734   -2.1017290878
N        1.4995852141   -1.1563504027   -2.6234206978
N       -0.5942074788   -0.2571932349   -2.4821236074
O       -1.8490108733    0.6462739260   -0.7823931148
H        2.3344044845   -0.6929605940    1.0603262096
H        0.0077964801   -0.1144693234    0.2242809320
H        3.8151774280   -2.0269500037   -0.5163352181
H       -3.4875460088   -0.1326613284   -3.0473907439
H       -2.3673305724    0.8518572279   -4.0096587725
H       -3.3142887776    1.5909513243   -2.6887390758
H       -0.5478208795   -0.4412672009   -3.4791824682
17   
torsion grid (-15,)
C        2.0160167460   -0.9204333748    0.0346343351
C        0.7835467887   -0.4978071066   -0.4299668093
C        2.8738863485   -1.5764973435   -0.8625546215
C        0.5588796037   -0.6703987247   -1.8111750744
C       -1.7019469555    0.4019739818   -1.9795824108
C       -2.7796628990    0.6881273100   -3.0104067575
N        2.5541781177   -1.7937922208   -2.1407410730
N        1.4674367261   -1.2078486518   -2.6408066051
N       -0.5852081057   -0.2331455001   -2.4894132299
O       -1.8330728851    0.6872350787   -0.7938978845
H        2.3020735073   -0.7802414809    1.0731921739
H        0.0340181167   -0.0356136621    0.1981469801
H        3.8144359985   -2.0147519901   -0.5388445736
H       -3.4740562902   -0.1583112285   -3.0441013137
H       -2.3795112647    0.8447360866   -4.0161734765
H       -3.3368649177    1.5711817691   -2.6956650660
H       -0.5487810777   -0.4399600734   -3.4824618026
17   
torsion grid (0,)
C        1.9998386195   -0.9528403777    0.0437063006
C        0.7988051189   -0.4607047251   -0.4356615352
C        2.8729594786   -1.5727165581   -0.8618175588
C        0.5719688588   -0.6378058401   -1.8142529028
C       -1.6956479798    0.4207538335   -1.9784402235
C       -2.7862132754    0.6804205749   -3.0026883959
N        2.5976706444   -1.7088232000   -2.1618718856
N        1.4466763647   -1.2407461408   -2.6362919823
N       -0.5774556321   -0.2101377199   -2.4898456889
O       -1.8172199336    0.7248637863   -0.7963590665
H        2.2633334637   -0.8628461548    1.0937805953
H        0.0637407532    0.0324175810    0.1860456721
H        3.8305168519   -1.9788236172   -0.5464443995
H       -3.4781441994   -0.1686692556   -3.0085021561
H       -2.3987068205    0.8150931211   -4.0165285855
H       -3.3427183636    1.5687215332   -2.7016729755
H       -0.5492158490   -0.4329327289   -3.4797157225
17   
torsion grid (15,)
C        1.9799832016   -0.9906666374    0.0609126281
C        0.8160861695   -0.4295158500   -0.4341476064
C        2.8733347636   -1.5805201256   -0.8484273414
C        0.5862538877   -0.6124792167   -1.8136162295
C       -1.6858078489    0.4355043687   -1.9776530030
C       -2.7875041717    0.6688363904   -2.9962357558
N        2.6346509522   -1.6310165930   -2.1606031462
N        1.4309107016   -1.2833526698   -2.6116903055
N       -0.5665288857   -0.1946124049   -2.4886405805
O       -1.7979677233    0.7613155813   -0.8005946999
H        2.2158061945   -0.9476184284    1.1204816816
H        0.0980354461    0.0963207638    0.1806049705
H        3.8453020591   -1.9529329203   -0.5355849825
H       -3.4755453406   -0.1831930665   -2.9766593637
H       -2.4107789734    0.7831110860   -4.0166128347
H       -3.3450733542    1.5610470964   -2.7089961639
H       -0.5458989521   -0.4352098510   -3.4745131521
17   
torsion grid (30,)
C        1.9577646358   -1.0405870220    0.0674145846
C        0.8359011478   -0.4099378312   -0.4394932121
C        2.8717568625   -1.6092543532   -0.8457830121
C        0.5983638362   -0.5958780635   -1.8240262679
C       -1.6762308457    0.4465540634   -1.9814178020
C       -2.7913920923    0.6569135166   -2.9902787528
N        2.6583257061   -1.5669089781   -2.1592965961
N        1.4108824202   -1.3383014909   -2.5844163944
N       -0.5585395366   -0.1864024379   -2.4948985274
O       -1.7746575612    0.7939677033   -0.8097346615
H        2.1652597284   -1.0414682194    1.1337046903
H        0.1394766949    0.1487908055    0.1711066277
H        3.8573792442   -1.9445297806   -0.5333032378
H       -3.4735470295   -0.1990785138   -2.9489437990
H       -2.4273008972    0.7568622903   -4.0167213376
H       -3.3512806074    1.5501996036   -2.7110230528
H       -0.5491300072   -0.4451722519   -3.4762916212
17   
torsion grid (45,)
C        1.9372618958   -1.0842205997    0.0611875584
C        0.8568867439   -0.3913841482   -0.4505299730
C        2.8803885163   -1.6263684268   -0.8597161275
C        0.6118979073   -0.5661149204   -1.8485706700
C       -1.6671811946    0.4667091819   -1.9887760412
C       -2.8001297765    0.6487900561   -2.9830317334
N        2.6826307310   -1.4727697204   -2.1615196547
N        1.3987284403   -1.3692526070   -2.5603777577
N       -0.5563951004   -0.1766127538   -2.5077300195
O       -1.7441561882    0.8440843191   -0.8253402410
H        2.1146392601   -1.1311762452    1.1317796512
H        0.1790580643    0.1877079194    0.1620700510
H        3.8817436557   -1.9096377349   -0.5446396115
H       -3.4779587203   -0.2084760801   -2.9093490909
H       -2.4539761348    0.7248601820   -4.0176998518
H       -3.3586469791    1.5466455180   -2.7160285649
H       -0.5622614948   -0.4539717398   -3.4840539299
17   
torsion grid (60,)
C        1.9044655514   -1.1335354932    0.0638365951
C        0.8730428448   -0.3761904890   -0.4495154909
C        2.8845257961   -1.6439091103   -0.8677924443
C        0.6200395106   -0.5417604297   -1.8677652938
C       -1.6610547913    0.4844823883   -2.0009757134
C       -2.8067478768    0.6401149677   -2.9846838012
N        2.6937168473   -1.3792648221   -2.1465158853
N        1.3796042188   -1.4114271967   -2.5157507518
N       -0.5553848276   -0.1711036369   -2.5204291536
O       -1.7200195975    0.8929583783   -0.8477505597
H        2.0540012579   -1.2188935354    1.1360709816
H        0.2086298065    0.2141562343    0.1671382803
H        3.8985605028   -1.8858395799   -0.5562281717
H       -3.4826304989   -0.2154382456   -2.8796571186
H       -2.4741360093    0.6889182348   -4.0254273000
H       -3.3626104309    1.5443580019   -2.7342221202
H       -0.5748842996   -0.4736074020   -3.4890596536
17   
torsion grid (75,)
C        1.8740236652   -1.1905876469    0.0609835065
C        0.8852502111   -0.3792502041   -0.4445930800
C        2.9109861057   -1.6743360578   -0.8804348708
C        0.6289583941   -0.5040192555   -1.9038652240
C       -1.6508734906    0.5177394121   -2.0216800633
C       -2.8223121646    0.6362939792   -2.9794519414
N        2.7110018745   -1.2677369583   -2.1075142253
N        1.3806407917   -1.4204377837   -2.4655578247
N       -0.5627258291   -0.1724580661   -2.5394484193
O       -1.6716487196    0.9813176500   -0.8891204670
H        1.9947714116   -1.3112965843    1.1334254164
H        0.2241632579    0.2023538226    0.1844380692
H        3.9339729120   -1.8586225777   -0.5557745977
H       -3.4984003842   -0.2105024401   -2.8190585789
H       -2.5180856408    0.6377417849   -4.0299954453
H       -3.3675038245    1.5534579202   -2.7538099123
H       -0.6048754453   -0.5099959517   -3.4959837895
