29
0 1 C13H13NO2
C                    -1.992795897388    -5.569927609193     4.927943046638
C                    -1.409427130270    -5.228955009344     6.147967895181
C                     0.368454476350    -2.647729775545     0.466680191441
C                    -1.736735279143    -4.777880338513     3.803074124436
C                    -0.572117634103    -4.111194995581     6.251337905983
C                     0.069852757086    -3.426581086416     1.617123417426
C                    -0.011022856550    -1.336053138064     0.398815696014
C                    -0.912874657740    -3.651410761085     3.881403623090
C                    -0.319035373369    -3.324308986033     5.121524881102
C                    -0.619177696830    -2.854899065701     2.660477834470
C                    -0.728683221049    -0.699481095272     1.481877142023
C                    -1.842899716040    -0.919868046794     3.634906454149
C                     1.120527076106    -1.840639002203     6.336074512966
N                    -1.039339157956    -1.545969180742     2.579920097585
O                    -1.086659300698     0.484998009845     1.499622967489
O                     0.492597301513    -2.226294807128     5.115921524161
H                    -2.641791909815    -6.437057204283     4.849050503432
H                    -1.599051438879    -5.832233428709     7.031912101432
H                     0.914834433789    -3.100285433468    -0.357922876171
H                    -2.188791504905    -5.023666960047     2.846051159237
H                    -0.120234142365    -3.870697743689     7.206784653358
H                     0.404500493327    -4.452911179371     1.708748705169
H                     0.210588018358    -0.708302918591    -0.457641913476
H                    -1.209384618867    -0.304422319325     4.278110082243
H                    -2.332291992276    -1.689938042861     4.228378341366
H                    -2.584229833208    -0.274598018734     3.163965200805
H                     1.706299000983    -0.952278468164     6.098324235851
H                     1.787045410711    -2.628808393490     6.706059861944
H                     0.378894221948    -1.594046115688     7.105352410126
